Version 4
SHEET 1 880 680
WIRE 160 48 32 48
WIRE 432 48 240 48
WIRE 32 96 32 48
WIRE 32 96 -48 96
WIRE 144 96 32 96
WIRE 432 96 432 48
WIRE 432 96 336 96
WIRE 496 96 432 96
WIRE 32 128 32 96
WIRE 144 128 144 96
WIRE 336 128 336 96
WIRE 432 128 432 96
WIRE -48 144 -48 96
WIRE -48 272 -48 224
WIRE 32 272 32 208
WIRE 32 272 -48 272
WIRE 144 272 144 208
WIRE 144 272 32 272
WIRE 336 272 336 208
WIRE 432 272 432 208
WIRE 432 272 336 272
WIRE 496 272 432 272
WIRE 32 304 32 272
FLAG 32 304 0
SYMBOL res 16 112 R0
SYMATTR InstName R1
SYMATTR Value 1
SYMBOL res 256 32 R90
WINDOW 0 0 56 VBottom 2
WINDOW 3 32 56 VTop 2
SYMATTR InstName R2
SYMATTR Value 2
SYMBOL res 448 224 R180
WINDOW 0 36 76 Left 2
WINDOW 3 36 40 Left 2
SYMATTR InstName R3
SYMATTR Value 3
SYMBOL ind2 128 112 R0
SYMATTR InstName L1
SYMATTR Value 100m
SYMATTR Type ind
SYMBOL ind2 352 224 R180
WINDOW 0 36 80 Left 2
WINDOW 3 36 40 Left 2
SYMATTR InstName L2
SYMATTR Value 100m
SYMATTR Type ind
SYMBOL voltage -48 128 R0
WINDOW 3 -186 135 Left 2
WINDOW 123 -186 107 Left 2
WINDOW 39 0 0 Left 0
SYMATTR InstName V2
SYMATTR Value 1
SYMATTR Value2 AC 1 0
TEXT 160 240 Left 2 !K L1 L2 1
TEXT -240 264 Left 2 !.net I(R3) V2
TEXT -240 288 Left 2 ;.ac dec 100 .001 100
TEXT -242 328 Left 2 !.tran 0 1 0 100ms
